Hello World2
new line from forked project
A new line from original project.
new sline.
first newline
second newline

